$ NASTRAN input file created by the Patran 2016 input file translator on
$  December  14, 2017 at 14:57:50.
$ Direct Text Input for Nastran System Cell Section
$ Direct Text Input for File Management Section
$ Direct Text Input for Executive Control
$ Linear Static Analysis, Database
SOL 101
CEND
$ Direct Text Input for Global Case Control Data
TITLE = MSC.Nastran job created on 14-Dec-17 at 14:20:29
ECHO = NONE
SUBCASE 1
$ Subcase name : Default
   SUBTITLE=Default
   DISPLACEMENT(SORT1,REAL)=ALL
   SPCFORCES(SORT1,REAL)=ALL
   STRESS(SORT1,REAL,VONMISES,BILIN)=ALL
BEGIN BULK
$ Direct Text Input for Bulk Data
PARAM    POST    0
PARAM   PRTMAXIM YES
$ Elements and Element Properties for region : 1
PSHELL   1       1      .1       1               1
$ Pset: "1" will be imported as: "pshell.1"
CTRIA3   1       1       13      12      1
CTRIA3   2       1       1       2       13
CTRIA3   3       1       2       3       13
CTRIA3   4       1       14      13      3
CTRIA3   5       1       15      14      3
CTRIA3   6       1       3       4       15
CTRIA3   7       1       4       5       15
CTRIA3   8       1       16      15      5
CTRIA3   9       1       17      16      5
CTRIA3   10      1       5       6       17
CTRIA3   11      1       6       7       17
CTRIA3   12      1       18      17      7
CTRIA3   13      1       19      18      7
CTRIA3   14      1       7       8       19
CTRIA3   15      1       8       9       19
CTRIA3   16      1       20      19      9
CTRIA3   17      1       21      20      9
CTRIA3   18      1       9       10      21
CTRIA3   19      1       10      11      21
CTRIA3   20      1       22      21      11
$ ... 1140 like lines cut
$ Referenced Material Records
$ Material Record : Material_1
$ Description of Material : Date: 14-Dec-17           Time: 14:55:17
MAT1     1                      1.
$ Nodes of the Entire Model
GRID     1               0.      0.      0.
GRID     2               0.     4.       0.
GRID     3               0.     8.       0.
GRID     4               0.     12.      0.
GRID     5               0.     16.      0.
GRID     6               0.     20.      0.
GRID     7               0.     24.      0.
GRID*    8                               0.             28.0000019073486
*        0.
GRID*    9                               0.             32.0000038146973
*        0.
GRID*    10                              0.             36.0000038146973
*        0.
GRID     11              0.     40.      0.
GRID     12              0.      0.     4.
GRID     13              0.     4.      4.
GRID     14              0.     8.      4.
GRID     15              0.     12.     4.
GRID     16              0.     16.     4.
GRID     17              0.     20.     4.
GRID     18              0.     24.     4.
GRID*    19                              0.             28.0000019073486
*       4.
GRID*    20                              0.             32.0000038146973
*       4.
GRID*    21                              0.             36.0000038146973
*       4.
GRID     22              0.     40.     4.
GRID     23              0.      0.     8.
GRID     24              0.     4.      8.
GRID     25              0.     8.      8.
GRID     26              0.     12.     8.
GRID     27              0.     16.     8.
GRID     28              0.     20.     8.
GRID     29              0.     24.     8.
GRID*    30                              0.             28.0000019073486
*       8.
GRID*    31                              0.             32.0000076293945
*       8.
GRID*    32                              0.             36.0000038146973
*       8.
GRID     33              0.     40.     8.
GRID     34              0.      0.     12.
GRID     35              0.     4.      12.
GRID     36              0.     8.      12.
GRID     37              0.     12.     12.
GRID     38              0.     16.     12.
GRID     39              0.     20.     12.
GRID     40              0.     24.     12.
GRID*    41                              0.             28.0000019073486
*       12.
GRID*    42                              0.             32.0000076293945
*       12.
GRID*    43                              0.             36.0000038146973
*       12.
GRID     44              0.     40.     12.
GRID     45             80.      0.      0.
GRID     46             80.     4.       0.
GRID     47             80.     8.       0.
GRID     48             80.     12.      0.
GRID     49             80.     16.      0.
GRID     50             80.     20.      0.
GRID     51             80.     24.      0.
GRID*    52                             80.             28.0000019073486
*        0.
GRID*    53                             80.             32.0000038146973
*        0.
GRID*    54                             80.             36.0000038146973
*        0.
GRID     55             80.     40.      0.
GRID     56             80.      0.     4.
GRID     57             80.     4.      4.
GRID     58             80.     8.      4.
GRID     59             80.     12.     4.
GRID     60             80.     16.     4.
GRID     61             80.     20.     4.
GRID     62             80.     24.     4.
GRID*    63                             80.             28.0000019073486
*       4.
GRID*    64                             80.             32.0000038146973
*       4.
GRID*    65                             80.             36.0000038146973
*       4.
GRID     66             80.     40.     4.
GRID     67             80.      0.     8.
GRID     68             80.     4.      8.
GRID     69             80.     8.      8.
GRID     70             80.     12.     8.
GRID     71             80.     16.     8.
GRID     72             80.     20.     8.
GRID     73             80.     24.     8.
GRID*    74                             80.             28.0000019073486
*       8.
GRID*    75                             80.             32.0000076293945
*       8.
GRID*    76                             80.             36.0000038146973
*       8.
GRID     77             80.     40.     8.
GRID     78             80.      0.     12.
GRID     79             80.     4.      12.
GRID     80             80.     8.      12.
GRID     81             80.     12.     12.
GRID     82             80.     16.     12.
GRID     83             80.     20.     12.
GRID     84             80.     24.     12.
GRID*    85                             80.             28.0000019073486
*       12.
GRID*    86                             80.             32.0000076293945
*       12.
GRID*    87                             80.             36.0000038146973
*       12.
GRID     88             80.     40.     12.
GRID     89              0.      0.      0.
GRID*    90                              0.              0.
*       4.00000095367432
GRID*    91                              0.              0.
*       8.00000190734863
GRID     92              0.      0.     12.
GRID     93             4.       0.      0.
GRID*    94                             4.               0.
*       4.00000095367432
GRID*    95                             4.               0.
*       8.00000190734863
GRID     96             4.       0.     12.
GRID     97             8.       0.      0.
GRID*    98                             8.               0.
*       4.00000095367432
GRID*    99                             8.               0.
*       8.00000190734863
GRID     100            8.       0.     12.
GRID     101            12.      0.      0.
GRID*    102                            12.              0.
*       4.00000095367432
GRID*    103                            12.              0.
*       8.00000190734863
GRID     104            12.      0.     12.
GRID     105            16.      0.      0.
GRID*    106                            16.              0.
*       4.00000095367432
GRID*    107                            16.              0.
*       8.00000190734863
GRID     108            16.      0.     12.
GRID     109            20.      0.      0.
GRID*    110                            20.              0.
*       4.00000095367432
GRID*    111                            20.              0.
*       8.00000190734863
GRID     112            20.      0.     12.
GRID     113            24.      0.      0.
GRID*    114                            24.              0.
*       4.00000095367432
GRID*    115                            24.              0.
*       8.00000190734863
GRID     116            24.      0.     12.
GRID*    117                            28.0000019073486 0.
*        0.
GRID*    118                            28.0000019073486 0.
*       4.00000095367432
GRID*    119                            28.0000019073486 0.
*       8.00000190734863
GRID*    120                            28.0000019073486 0.
*       12.
GRID*    121                            32.0000038146973 0.
*        0.
GRID*    122                            32.0000038146973 0.
*       4.00000095367432
GRID*    123                            32.0000038146973 0.
*       8.00000190734863
GRID*    124                            32.0000038146973 0.
*       12.
GRID*    125                            36.0000038146973 0.
*        0.
GRID*    126                            36.0000038146973 0.
*       4.00000095367432
GRID*    127                            36.0000038146973 0.
*       8.00000190734863
GRID*    128                            36.0000038146973 0.
*       12.
GRID*    129                            40.0000038146973 0.
*        0.
GRID*    130                            40.0000038146973 0.
*       4.00000095367432
GRID*    131                            40.0000038146973 0.
*       8.00000190734863
GRID*    132                            40.0000038146973 0.
*       12.
GRID*    133                            44.0000038146973 0.
*        0.
GRID*    134                            44.0000038146973 0.
*       4.00000095367432
GRID*    135                            44.0000038146973 0.
*       8.00000190734863
GRID*    136                            44.0000038146973 0.
*       12.
$ ... 64 like lines cut
GRID     169            80.      0.      0.
GRID*    170                            80.              0.
*       4.00000095367432
GRID*    171                            80.              0.
*       8.00000190734863
GRID     172            80.      0.     12.
GRID     173             0.     40.      0.
GRID*    174                             0.             40.
*       4.00000095367432
GRID*    175                             0.             40.
*       8.00000190734863
GRID     176             0.     40.     12.
GRID     177            4.      40.      0.
GRID*    178                            4.              40.
*       4.00000095367432
GRID*    179                            4.              40.
*       8.00000190734863
GRID     180            4.      40.     12.
GRID     181            8.      40.      0.
GRID*    182                            8.              40.
*       4.00000095367432
GRID*    183                            8.              40.
*       8.00000190734863
GRID     184            8.      40.     12.
GRID     185            12.     40.      0.
GRID*    186                            12.             40.
*       4.00000095367432
GRID*    187                            12.             40.
*       8.00000190734863
GRID     188            12.     40.     12.
GRID     189            16.     40.      0.
GRID*    190                            16.             40.
*       4.00000095367432
GRID*    191                            16.             40.
*       8.00000190734863
GRID     192            16.     40.     12.
GRID     193            20.     40.      0.
GRID*    194                            20.             40.
*       4.00000095367432
GRID*    195                            20.             40.
*       8.00000190734863
GRID     196            20.     40.     12.
GRID     197            24.     40.      0.
GRID*    198                            24.             40.
*       4.00000095367432
GRID*    199                            24.             40.
*       8.00000190734863
GRID     200            24.     40.     12.
GRID*    201                            28.000001907348640.
*        0.
GRID*    202                            28.000001907348640.
*       4.00000095367432
GRID*    203                            28.000001907348640.
*       8.00000190734863
GRID*    204                            28.000001907348640.
*       12.
GRID*    205                            32.000003814697340.
*        0.
GRID*    206                            32.000003814697340.
*       4.00000095367432
GRID*    207                            32.000003814697340.
*       8.00000190734863
GRID*    208                            32.000003814697340.
*       12.
GRID*    209                            36.000003814697340.
*        0.
GRID*    210                            36.000003814697340.
*       4.00000095367432
GRID*    211                            36.000003814697340.
*       8.00000190734863
GRID*    212                            36.000003814697340.
*       12.
GRID*    213                            40.000003814697340.
*        0.
GRID*    214                            40.000003814697340.
*       4.00000095367432
GRID*    215                            40.000003814697340.
*       8.00000190734863
GRID*    216                            40.000003814697340.
*       12.
GRID*    217                            44.000003814697340.
*        0.
GRID*    218                            44.000003814697340.
*       4.00000095367432
GRID*    219                            44.000003814697340.
*       8.00000190734863
GRID*    220                            44.000003814697340.
*       12.
$ ... 64 like lines cut
GRID     253            80.     40.      0.
GRID*    254                            80.             40.
*       4.00000095367432
GRID*    255                            80.             40.
*       8.00000190734863
GRID     256            80.     40.     12.
GRID     257             0.      0.      0.
GRID*    258                            3.99999976158142 0.
*        0.
GRID*    259                            7.99999952316284 0.
*        0.
GRID*    260                            11.9999990463257 0.
*        0.
GRID*    261                            15.9999990463257 0.
*        0.
GRID     262            20.      0.      0.
GRID*    263                            23.9999980926514 0.
*        0.
GRID*    264                            27.9999980926514 0.
*        0.
GRID*    265                            31.9999980926514 0.
*        0.
GRID     266            36.      0.      0.
GRID     267            40.      0.      0.
GRID     268            44.      0.      0.
GRID*    269                            47.9999961853027 0.
*        0.
GRID*    270                            51.9999961853027 0.
*        0.
GRID     271            56.      0.      0.
GRID     272            60.      0.      0.
GRID*    273                            63.9999961853027 0.
*        0.
GRID     274            68.      0.      0.
GRID     275            72.      0.      0.
GRID     276            76.      0.      0.
GRID     277            80.      0.      0.
GRID*    278                             0.             3.99999976158142
*        0.
GRID*    279                            3.999999761581423.99999976158142
*        0.
GRID*    280                            7.999999523162843.99999976158142
*        0.
GRID*    281                            11.99999904632573.99999976158142
*        0.
GRID*    282                            15.99999904632573.99999976158142
*        0.
GRID*    283                            20.             3.99999976158142
*        0.
GRID*    284                            23.99999809265143.99999976158142
*        0.
GRID*    285                            27.99999809265143.99999976158142
*        0.
GRID*    286                            31.99999809265143.99999976158142
*        0.
GRID*    287                            36.             3.99999976158142
*        0.
GRID*    288                            40.             3.99999976158142
*        0.
GRID*    289                            44.             3.99999976158142
*        0.
GRID*    290                            47.99999618530273.99999976158142
*        0.
GRID*    291                            51.99999618530273.99999976158142
*        0.
GRID*    292                            56.             3.99999976158142
*        0.
GRID*    293                            60.             3.99999976158142
*        0.
GRID*    294                            63.99999618530273.99999976158142
*        0.
GRID*    295                            68.             3.99999976158142
*        0.
GRID*    296                            72.             3.99999976158142
*        0.
GRID*    297                            76.             3.99999976158142
*        0.
$ ... 128 like lines cut
GRID     362             0.     20.      0.
GRID*    363                            3.9999997615814220.
*        0.
GRID*    364                            7.9999995231628420.
*        0.
GRID*    365                            11.999999046325720.
*        0.
GRID*    366                            15.999999046325720.
*        0.
GRID     367            20.     20.      0.
GRID*    368                            23.999998092651420.
*        0.
GRID*    369                            27.999998092651420.
*        0.
GRID*    370                            31.999998092651420.
*        0.
GRID     371            36.     20.      0.
GRID     372            40.     20.      0.
GRID     373            44.     20.      0.
GRID*    374                            47.999996185302720.
*        0.
GRID*    375                            51.999996185302720.
*        0.
GRID     376            56.     20.      0.
GRID     377            60.     20.      0.
GRID*    378                            63.999996185302720.
*        0.
GRID     379            68.     20.      0.
GRID     380            72.     20.      0.
GRID     381            76.     20.      0.
GRID     382            80.     20.      0.
GRID*    383                             0.             23.9999980926514
*        0.
GRID*    384                            3.9999997615814223.9999980926514
*        0.
GRID*    385                            7.9999995231628423.9999980926514
*        0.
GRID*    386                            11.999999046325723.9999980926514
*        0.
GRID*    387                            15.999999046325723.9999980926514
*        0.
GRID*    388                            20.             23.9999980926514
*        0.
GRID*    389                            23.999998092651423.9999980926514
*        0.
GRID*    390                            27.999998092651423.9999980926514
*        0.
GRID*    391                            31.999998092651423.9999980926514
*        0.
GRID*    392                            36.             23.9999980926514
*        0.
GRID*    393                            40.             23.9999980926514
*        0.
GRID*    394                            44.             23.9999980926514
*        0.
GRID*    395                            47.999996185302723.9999980926514
*        0.
GRID*    396                            51.999996185302723.9999980926514
*        0.
GRID*    397                            56.             23.9999980926514
*        0.
GRID*    398                            60.             23.9999980926514
*        0.
GRID*    399                            63.999996185302723.9999980926514
*        0.
GRID*    400                            68.             23.9999980926514
*        0.
GRID*    401                            72.             23.9999980926514
*        0.
GRID*    402                            76.             23.9999980926514
*        0.
GRID*    403                            80.             23.9999980926514
*        0.
GRID     404             0.     28.      0.
GRID*    405                            3.9999997615814228.
*        0.
GRID*    406                            7.9999995231628428.
*        0.
GRID*    407                            11.999999046325728.
*        0.
GRID*    408                            15.999999046325728.
*        0.
GRID     409            20.     28.      0.
GRID*    410                            23.999998092651428.
*        0.
GRID*    411                            27.999998092651428.
*        0.
GRID*    412                            31.999998092651428.
*        0.
GRID     413            36.     28.      0.
GRID     414            40.     28.      0.
GRID     415            44.     28.      0.
GRID*    416                            47.999996185302728.
*        0.
GRID*    417                            51.999996185302728.
*        0.
GRID     418            56.     28.      0.
GRID     419            60.     28.      0.
GRID*    420                            63.999996185302728.
*        0.
GRID     421            68.     28.      0.
GRID     422            72.     28.      0.
GRID     423            76.     28.      0.
GRID     424            80.     28.      0.
GRID*    425                             0.             31.9999980926514
*        0.
GRID*    426                            3.9999997615814231.9999980926514
*        0.
GRID*    427                            7.9999995231628431.9999980926514
*        0.
GRID*    428                            11.999999046325731.9999980926514
*        0.
GRID*    429                            15.999999046325731.9999980926514
*        0.
GRID*    430                            20.             31.9999980926514
*        0.
GRID*    431                            23.999998092651431.9999980926514
*        0.
GRID*    432                            27.999998092651431.9999980926514
*        0.
GRID*    433                            31.999998092651431.9999980926514
*        0.
GRID*    434                            36.             31.9999980926514
*        0.
GRID*    435                            40.             31.9999980926514
*        0.
GRID*    436                            44.             31.9999980926514
*        0.
GRID*    437                            47.999996185302731.9999980926514
*        0.
GRID*    438                            51.999996185302731.9999980926514
*        0.
GRID*    439                            56.             31.9999980926514
*        0.
GRID*    440                            60.             31.9999980926514
*        0.
GRID*    441                            63.999996185302731.9999980926514
*        0.
GRID*    442                            68.             31.9999980926514
*        0.
GRID*    443                            72.             31.9999980926514
*        0.
GRID*    444                            76.             31.9999980926514
*        0.
GRID*    445                            80.             31.9999980926514
*        0.
GRID     446             0.     36.      0.
GRID*    447                            3.9999997615814236.
*        0.
GRID*    448                            7.9999995231628436.
*        0.
GRID*    449                            11.999999046325736.
*        0.
GRID*    450                            15.999999046325736.
*        0.
GRID     451            20.     36.      0.
GRID*    452                            23.999998092651436.
*        0.
GRID*    453                            27.999998092651436.
*        0.
GRID*    454                            31.999998092651436.
*        0.
GRID     455            36.     36.      0.
GRID     456            40.     36.      0.
GRID     457            44.     36.      0.
GRID*    458                            47.999996185302736.
*        0.
GRID*    459                            51.999996185302736.
*        0.
GRID     460            56.     36.      0.
GRID     461            60.     36.      0.
GRID*    462                            63.999996185302736.
*        0.
GRID     463            68.     36.      0.
GRID     464            72.     36.      0.
GRID     465            76.     36.      0.
GRID     466            80.     36.      0.
GRID     467             0.     40.      0.
GRID*    468                            3.9999997615814240.
*        0.
GRID*    469                            7.9999995231628440.
*        0.
GRID*    470                            11.999999046325740.
*        0.
GRID*    471                            15.999999046325740.
*        0.
GRID     472            20.     40.      0.
GRID*    473                            23.999998092651440.
*        0.
GRID*    474                            27.999998092651440.
*        0.
GRID*    475                            31.999998092651440.
*        0.
GRID     476            36.     40.      0.
GRID     477            40.     40.      0.
GRID     478            44.     40.      0.
GRID*    479                            47.999996185302740.
*        0.
GRID*    480                            51.999996185302740.
*        0.
GRID     481            56.     40.      0.
GRID     482            60.     40.      0.
GRID*    483                            63.999996185302740.
*        0.
GRID     484            68.     40.      0.
GRID     485            72.     40.      0.
GRID     486            76.     40.      0.
GRID     487            80.     40.      0.
GRID     488             0.      0.     12.
GRID*    489                            3.99999976158142 0.
*       12.
GRID*    490                            7.99999952316284 0.
*       12.
GRID*    491                            11.9999990463257 0.
*       12.
GRID*    492                            15.9999990463257 0.
*       12.
GRID     493            20.      0.     12.
GRID*    494                            23.9999980926514 0.
*       12.
GRID*    495                            27.9999980926514 0.
*       12.
GRID*    496                            31.9999980926514 0.
*       12.
GRID     497            36.      0.     12.
GRID     498            40.      0.     12.
GRID     499            44.      0.     12.
GRID*    500                            47.9999961853027 0.
*       12.
GRID*    501                            51.9999961853027 0.
*       12.
GRID     502            56.      0.     12.
GRID     503            60.      0.     12.
GRID*    504                            63.9999961853027 0.
*       12.
GRID     505            68.      0.     12.
GRID     506            72.      0.     12.
GRID     507            76.      0.     12.
GRID     508            80.      0.     12.
GRID*    509                             0.             3.99999976158142
*       12.
GRID*    510                            3.999999761581423.99999976158142
*       12.
GRID*    511                            7.999999523162843.99999976158142
*       12.
GRID*    512                            11.99999904632573.99999976158142
*       12.
GRID*    513                            15.99999904632573.99999976158142
*       12.
GRID*    514                            20.             3.99999976158142
*       12.
GRID*    515                            23.99999809265143.99999976158142
*       12.
GRID*    516                            27.99999809265143.99999976158142
*       12.
GRID*    517                            31.99999809265143.99999976158142
*       12.
GRID*    518                            36.             3.99999976158142
*       12.
GRID*    519                            40.             3.99999976158142
*       12.
GRID*    520                            44.             3.99999976158142
*       12.
GRID*    521                            47.99999618530273.99999976158142
*       12.
GRID*    522                            51.99999618530273.99999976158142
*       12.
GRID*    523                            56.             3.99999976158142
*       12.
GRID*    524                            60.             3.99999976158142
*       12.
GRID*    525                            63.99999618530273.99999976158142
*       12.
GRID*    526                            68.             3.99999976158142
*       12.
GRID*    527                            72.             3.99999976158142
*       12.
GRID*    528                            76.             3.99999976158142
*       12.
$ ... 128 like lines cut
GRID     593             0.     20.     12.
GRID*    594                            3.9999997615814220.
*       12.
GRID*    595                            7.9999995231628420.
*       12.
GRID*    596                            11.999999046325720.
*       12.
GRID*    597                            15.999999046325720.
*       12.
GRID     598            20.     20.     12.
GRID*    599                            23.999998092651420.
*       12.
GRID*    600                            27.999998092651420.
*       12.
GRID*    601                            31.999998092651420.
*       12.
GRID     602            36.     20.     12.
GRID     603            40.     20.     12.
GRID     604            44.     20.     12.
GRID*    605                            47.999996185302720.
*       12.
GRID*    606                            51.999996185302720.
*       12.
GRID     607            56.     20.     12.
GRID     608            60.     20.     12.
GRID*    609                            63.999996185302720.
*       12.
GRID     610            68.     20.     12.
GRID     611            72.     20.     12.
GRID     612            76.     20.     12.
GRID     613            80.     20.     12.
GRID*    614                             0.             23.9999980926514
*       12.
GRID*    615                            3.9999997615814223.9999980926514
*       12.
GRID*    616                            7.9999995231628423.9999980926514
*       12.
GRID*    617                            11.999999046325723.9999980926514
*       12.
GRID*    618                            15.999999046325723.9999980926514
*       12.
GRID*    619                            20.             23.9999980926514
*       12.
GRID*    620                            23.999998092651423.9999980926514
*       12.
GRID*    621                            27.999998092651423.9999980926514
*       12.
GRID*    622                            31.999998092651423.9999980926514
*       12.
GRID*    623                            36.             23.9999980926514
*       12.
GRID*    624                            40.             23.9999980926514
*       12.
GRID*    625                            44.             23.9999980926514
*       12.
GRID*    626                            47.999996185302723.9999980926514
*       12.
GRID*    627                            51.999996185302723.9999980926514
*       12.
GRID*    628                            56.             23.9999980926514
*       12.
GRID*    629                            60.             23.9999980926514
*       12.
GRID*    630                            63.999996185302723.9999980926514
*       12.
GRID*    631                            68.             23.9999980926514
*       12.
GRID*    632                            72.             23.9999980926514
*       12.
GRID*    633                            76.             23.9999980926514
*       12.
GRID*    634                            80.             23.9999980926514
*       12.
GRID     635             0.     28.     12.
GRID*    636                            3.9999997615814228.
*       12.
GRID*    637                            7.9999995231628428.
*       12.
GRID*    638                            11.999999046325728.
*       12.
GRID*    639                            15.999999046325728.
*       12.
GRID     640            20.     28.     12.
GRID*    641                            23.999998092651428.
*       12.
GRID*    642                            27.999998092651428.
*       12.
GRID*    643                            31.999998092651428.
*       12.
GRID     644            36.     28.     12.
GRID     645            40.     28.     12.
GRID     646            44.     28.     12.
GRID*    647                            47.999996185302728.
*       12.
GRID*    648                            51.999996185302728.
*       12.
GRID     649            56.     28.     12.
GRID     650            60.     28.     12.
GRID*    651                            63.999996185302728.
*       12.
GRID     652            68.     28.     12.
GRID     653            72.     28.     12.
GRID     654            76.     28.     12.
GRID     655            80.     28.     12.
GRID*    656                             0.             31.9999980926514
*       12.
GRID*    657                            3.9999997615814231.9999980926514
*       12.
GRID*    658                            7.9999995231628431.9999980926514
*       12.
GRID*    659                            11.999999046325731.9999980926514
*       12.
GRID*    660                            15.999999046325731.9999980926514
*       12.
GRID*    661                            20.             31.9999980926514
*       12.
GRID*    662                            23.999998092651431.9999980926514
*       12.
GRID*    663                            27.999998092651431.9999980926514
*       12.
GRID*    664                            31.999998092651431.9999980926514
*       12.
GRID*    665                            36.             31.9999980926514
*       12.
GRID*    666                            40.             31.9999980926514
*       12.
GRID*    667                            44.             31.9999980926514
*       12.
GRID*    668                            47.999996185302731.9999980926514
*       12.
GRID*    669                            51.999996185302731.9999980926514
*       12.
GRID*    670                            56.             31.9999980926514
*       12.
GRID*    671                            60.             31.9999980926514
*       12.
GRID*    672                            63.999996185302731.9999980926514
*       12.
GRID*    673                            68.             31.9999980926514
*       12.
GRID*    674                            72.             31.9999980926514
*       12.
GRID*    675                            76.             31.9999980926514
*       12.
GRID*    676                            80.             31.9999980926514
*       12.
GRID     677             0.     36.     12.
GRID*    678                            3.9999997615814236.
*       12.
GRID*    679                            7.9999995231628436.
*       12.
GRID*    680                            11.999999046325736.
*       12.
GRID*    681                            15.999999046325736.
*       12.
GRID     682            20.     36.     12.
GRID*    683                            23.999998092651436.
*       12.
GRID*    684                            27.999998092651436.
*       12.
GRID*    685                            31.999998092651436.
*       12.
GRID     686            36.     36.     12.
GRID     687            40.     36.     12.
GRID     688            44.     36.     12.
GRID*    689                            47.999996185302736.
*       12.
GRID*    690                            51.999996185302736.
*       12.
GRID     691            56.     36.     12.
GRID     692            60.     36.     12.
GRID*    693                            63.999996185302736.
*       12.
GRID     694            68.     36.     12.
GRID     695            72.     36.     12.
GRID     696            76.     36.     12.
GRID     697            80.     36.     12.
GRID     698             0.     40.     12.
GRID*    699                            3.9999997615814240.
*       12.
GRID*    700                            7.9999995231628440.
*       12.
GRID*    701                            11.999999046325740.
*       12.
GRID*    702                            15.999999046325740.
*       12.
GRID     703            20.     40.     12.
GRID*    704                            23.999998092651440.
*       12.
GRID*    705                            27.999998092651440.
*       12.
GRID*    706                            31.999998092651440.
*       12.
GRID     707            36.     40.     12.
GRID     708            40.     40.     12.
GRID     709            44.     40.     12.
GRID*    710                            47.999996185302740.
*       12.
GRID*    711                            51.999996185302740.
*       12.
GRID     712            56.     40.     12.
GRID     713            60.     40.     12.
GRID*    714                            63.999996185302740.
*       12.
GRID     715            68.     40.     12.
GRID     716            72.     40.     12.
GRID     717            76.     40.     12.
GRID     718            80.     40.     12.
$ Loads for Load Case : Default
$ Referenced Coordinate Frames
ENDDATA aa55056f
