$ NASTRAN input file created by the Patran 2016 input file translator on
$  January   15, 2018 at 22:13:46.
$ Direct Text Input for Nastran System Cell Section
$ Direct Text Input for File Management Section
$ Direct Text Input for Executive Control
$ Linear Static Analysis, Database
SOL 101
CEND
$ Direct Text Input for Global Case Control Data
TITLE = MSC.Nastran job created on 15-Jan-18 at 22:13:34
ECHO = NONE
SUBCASE 1
$ Subcase name : Default
   SUBTITLE=Default
   DISPLACEMENT(SORT1,REAL)=ALL
   SPCFORCES(SORT1,REAL)=ALL
   STRESS(SORT1,REAL,VONMISES,BILIN)=ALL
BEGIN BULK
$ Direct Text Input for Bulk Data
PARAM    POST    0
PARAM   PRTMAXIM YES
$ Elements and Element Properties for region : struct
PSHELL   1       1      .001     1               1
$ Pset: "struct" will be imported as: "pshell.1"
CTRIA3   1       1       13      12      1
CTRIA3   2       1       1       2       13
CTRIA3   3       1       2       3       13
CTRIA3   4       1       14      13      3
CTRIA3   5       1       15      14      3
CTRIA3   6       1       3       4       15
CTRIA3   7       1       4       5       15
CTRIA3   8       1       16      15      5
CTRIA3   9       1       17      16      5
CTRIA3   10      1       5       6       17
CTRIA3   11      1       6       7       17
CTRIA3   12      1       18      17      7
CTRIA3   13      1       19      18      7
CTRIA3   14      1       7       8       19
CTRIA3   15      1       8       9       19
CTRIA3   16      1       20      19      9
CTRIA3   17      1       21      20      9
CTRIA3   18      1       9       10      21
CTRIA3   19      1       10      11      21
CTRIA3   20      1       22      21      11
$ ... 4420 like lines cut
$ Referenced Material Records
$ Material Record : steel
$ Description of Material : Date: 15-Jan-18           Time: 22:06:30
MAT1     1      1.              .3
$ Nodes of the Entire Model
GRID     1               0.      0.      0.
GRID*    2                               0.             .040000006556511
*        0.
GRID*    3                               0.             .080000013113022
*        0.
GRID*    4                               0.             .120000012218952
*        0.
GRID*    5                               0.             .160000026226044
*        0.
GRID*    6                               0.             .200000002980232
*        0.
GRID*    7                               0.             .240000024437904
*        0.
GRID*    8                               0.             .280000001192093
*        0.
GRID*    9                               0.             .320000052452087
*        0.
GRID*    10                              0.             .359999984502792
*        0.
GRID*    11                              0.             .400000005960465
*        0.
GRID*    12                              0.              0.
*       .03999999910593
GRID*    13                              0.             .040000006556511
*       .03999999910593
GRID*    14                              0.             .080000013113022
*       .03999999910593
GRID*    15                              0.             .120000012218952
*       .03999999910593
GRID*    16                              0.             .160000026226044
*       .03999999910593
GRID*    17                              0.             .200000002980232
*       .03999999910593
GRID*    18                              0.             .240000024437904
*       .03999999910593
GRID*    19                              0.             .280000001192093
*       .03999999910593
GRID*    20                              0.             .320000052452087
*       .03999999910593
GRID*    21                              0.             .359999984502792
*       .03999999910593
GRID*    22                              0.             .400000005960465
*       .03999999910593
GRID     23             4.       0.      0.
GRID*    24                             4.              .040000006556511
*        0.
GRID*    25                             4.              .080000013113022
*        0.
GRID*    26                             4.              .120000012218952
*        0.
GRID*    27                             4.              .160000026226044
*        0.
GRID*    28                             4.              .200000002980232
*        0.
GRID*    29                             4.              .240000024437904
*        0.
GRID*    30                             4.              .280000001192093
*        0.
GRID*    31                             4.              .320000052452087
*        0.
GRID*    32                             4.              .359999984502792
*        0.
GRID*    33                             4.              .400000005960465
*        0.
GRID*    34                             4.               0.
*       .03999999910593
GRID*    35                             4.              .040000006556511
*       .03999999910593
GRID*    36                             4.              .080000013113022
*       .03999999910593
GRID*    37                             4.              .120000012218952
*       .03999999910593
GRID*    38                             4.              .160000026226044
*       .03999999910593
GRID*    39                             4.              .200000002980232
*       .03999999910593
GRID*    40                             4.              .240000024437904
*       .03999999910593
GRID*    41                             4.              .280000001192093
*       .03999999910593
GRID*    42                             4.              .320000052452087
*       .03999999910593
GRID*    43                             4.              .359999984502792
*       .03999999910593
GRID*    44                             4.              .400000005960465
*       .03999999910593
GRID     45              0.      0.      0.
GRID*    46                              0.              0.
*       .03999999910593
GRID*    47                             .03999999910593  0.
*        0.
GRID*    48                             .03999999910593  0.
*       .03999999910593
GRID*    49                             .079999998211861 0.
*        0.
GRID*    50                             .079999998211861 0.
*       .03999999910593
GRID*    51                             .119999997317791 0.
*        0.
GRID*    52                             .119999997317791 0.
*       .03999999910593
GRID*    53                             .159999996423721 0.
*        0.
GRID*    54                             .159999996423721 0.
*       .03999999910593
GRID*    55                             .200000002980232 0.
*        0.
GRID*    56                             .200000002980232 0.
*       .03999999910593
GRID*    57                             .239999994635582 0.
*        0.
GRID*    58                             .239999994635582 0.
*       .03999999910593
GRID*    59                             .280000001192093 0.
*        0.
GRID*    60                             .280000001192093 0.
*       .03999999910593
GRID*    61                             .319999992847443 0.
*        0.
GRID*    62                             .319999992847443 0.
*       .03999999910593
GRID*    63                             .360000014305115 0.
*        0.
GRID*    64                             .360000014305115 0.
*       .03999999910593
GRID*    65                             .400000005960465 0.
*        0.
$ ... 58 like lines cut
GRID     95             1.       0.      0.
GRID*    96                             1.               0.
*       .03999999910593
GRID*    97                             1.03999996185303 0.
*        0.
GRID*    98                             1.03999996185303 0.
*       .03999999910593
GRID*    99                             1.08000004291534 0.
*        0.
GRID*    100                            1.08000004291534 0.
*       .03999999910593
GRID*    101                            1.12000000476837 0.
*        0.
GRID*    102                            1.12000000476837 0.
*       .03999999910593
GRID*    103                            1.1599999666214  0.
*        0.
GRID*    104                            1.1599999666214  0.
*       .03999999910593
GRID*    105                            1.20000004768372 0.
*        0.
GRID*    106                            1.20000004768372 0.
*       .03999999910593
GRID*    107                            1.24000000953674 0.
*        0.
GRID*    108                            1.24000000953674 0.
*       .03999999910593
GRID*    109                            1.27999997138977 0.
*        0.
GRID*    110                            1.27999997138977 0.
*       .03999999910593
GRID*    111                            1.32000005245209 0.
*        0.
GRID*    112                            1.32000005245209 0.
*       .03999999910593
GRID*    113                            1.36000001430512 0.
*        0.
GRID*    114                            1.36000001430512 0.
*       .03999999910593
GRID*    115                            1.39999997615814 0.
*        0.
$ ... 58 like lines cut
GRID     145            2.       0.      0.
GRID*    146                            2.               0.
*       .03999999910593
GRID*    147                            2.03999996185303 0.
*        0.
GRID*    148                            2.03999996185303 0.
*       .03999999910593
GRID*    149                            2.07999992370606 0.
*        0.
GRID*    150                            2.07999992370606 0.
*       .03999999910593
GRID*    151                            2.11999988555908 0.
*        0.
GRID*    152                            2.11999988555908 0.
*       .03999999910593
GRID*    153                            2.16000008583069 0.
*        0.
GRID*    154                            2.16000008583069 0.
*       .03999999910593
GRID*    155                            2.20000004768372 0.
*        0.
GRID*    156                            2.20000004768372 0.
*       .03999999910593
GRID*    157                            2.24000000953674 0.
*        0.
GRID*    158                            2.24000000953674 0.
*       .03999999910593
GRID*    159                            2.27999997138977 0.
*        0.
GRID*    160                            2.27999997138977 0.
*       .03999999910593
GRID*    161                            2.3199999332428  0.
*        0.
GRID*    162                            2.3199999332428  0.
*       .03999999910593
GRID*    163                            2.35999989509583 0.
*        0.
GRID*    164                            2.35999989509583 0.
*       .03999999910593
GRID*    165                            2.40000009536743 0.
*        0.
$ ... 58 like lines cut
GRID     195            3.       0.      0.
GRID*    196                            3.               0.
*       .03999999910593
GRID*    197                            3.03999996185303 0.
*        0.
GRID*    198                            3.03999996185303 0.
*       .03999999910593
GRID*    199                            3.07999992370606 0.
*        0.
GRID*    200                            3.07999992370606 0.
*       .03999999910593
GRID*    201                            3.11999988555908 0.
*        0.
GRID*    202                            3.11999988555908 0.
*       .03999999910593
GRID*    203                            3.16000008583069 0.
*        0.
GRID*    204                            3.16000008583069 0.
*       .03999999910593
GRID*    205                            3.20000004768372 0.
*        0.
GRID*    206                            3.20000004768372 0.
*       .03999999910593
GRID*    207                            3.24000000953674 0.
*        0.
GRID*    208                            3.24000000953674 0.
*       .03999999910593
GRID*    209                            3.27999997138977 0.
*        0.
GRID*    210                            3.27999997138977 0.
*       .03999999910593
GRID*    211                            3.3199999332428  0.
*        0.
GRID*    212                            3.3199999332428  0.
*       .03999999910593
GRID*    213                            3.35999989509583 0.
*        0.
GRID*    214                            3.35999989509583 0.
*       .03999999910593
GRID*    215                            3.40000009536743 0.
*        0.
$ ... 58 like lines cut
GRID     245            4.       0.      0.
GRID*    246                            4.               0.
*       .03999999910593
GRID*    247                             0.             .400000005960465
*        0.
GRID*    248                             0.             .400000005960465
*       .03999999910593
GRID*    249                            .03999999910593 .400000005960465
*        0.
GRID*    250                            .03999999910593 .400000005960465
*       .03999999910593
GRID*    251                            .079999998211861.400000005960465
*        0.
GRID*    252                            .079999998211861.400000005960465
*       .03999999910593
GRID*    253                            .119999997317791.400000005960465
*        0.
GRID*    254                            .119999997317791.400000005960465
*       .03999999910593
GRID*    255                            .159999996423721.400000005960465
*        0.
GRID*    256                            .159999996423721.400000005960465
*       .03999999910593
GRID*    257                            .200000002980232.400000005960465
*        0.
GRID*    258                            .200000002980232.400000005960465
*       .03999999910593
GRID*    259                            .239999994635582.400000005960465
*        0.
GRID*    260                            .239999994635582.400000005960465
*       .03999999910593
GRID*    261                            .280000001192093.400000005960465
*        0.
GRID*    262                            .280000001192093.400000005960465
*       .03999999910593
GRID*    263                            .319999992847443.400000005960465
*        0.
GRID*    264                            .319999992847443.400000005960465
*       .03999999910593
GRID*    265                            .360000014305115.400000005960465
*        0.
$ ... 366 like lines cut
GRID     449             0.      0.      0.
GRID*    450                            .03999999910593  0.
*        0.
GRID*    451                            .079999998211861 0.
*        0.
GRID*    452                            .119999997317791 0.
*        0.
GRID*    453                            .159999996423721 0.
*        0.
GRID*    454                            .199999988079071 0.
*        0.
GRID*    455                            .239999994635582 0.
*        0.
GRID*    456                            .280000001192093 0.
*        0.
GRID*    457                            .319999992847443 0.
*        0.
GRID*    458                            .359999984502792 0.
*        0.
GRID*    459                            .399999976158142 0.
*        0.
GRID*    460                            .439999997615814 0.
*        0.
GRID*    461                            .479999989271164 0.
*        0.
GRID*    462                            .519999980926514 0.
*        0.
GRID*    463                            .560000002384186 0.
*        0.
GRID*    464                            .599999964237213 0.
*        0.
GRID*    465                            .639999985694885 0.
*        0.
GRID*    466                            .680000007152557 0.
*        0.
GRID*    467                            .719999969005585 0.
*        0.
GRID*    468                            .759999990463257 0.
*        0.
GRID*    469                            .799999952316284 0.
*        0.
$ ... 8 like lines cut
GRID     474            1.       0.      0.
GRID*    475                            1.03999996185303 0.
*        0.
GRID*    476                            1.07999992370606 0.
*        0.
GRID*    477                            1.12000000476837 0.
*        0.
GRID*    478                            1.1599999666214  0.
*        0.
GRID*    479                            1.19999992847443 0.
*        0.
GRID*    480                            1.24000000953674 0.
*        0.
GRID*    481                            1.27999997138977 0.
*        0.
GRID*    482                            1.3199999332428  0.
*        0.
GRID*    483                            1.36000001430512 0.
*        0.
GRID*    484                            1.39999997615814 0.
*        0.
GRID*    485                            1.43999993801117 0.
*        0.
GRID*    486                            1.48000001907349 0.
*        0.
GRID*    487                            1.51999998092651 0.
*        0.
GRID*    488                            1.55999994277954 0.
*        0.
GRID*    489                            1.59999990463257 0.
*        0.
GRID*    490                            1.63999998569489 0.
*        0.
GRID*    491                            1.67999994754791 0.
*        0.
GRID*    492                            1.71999990940094 0.
*        0.
GRID*    493                            1.75999999046326 0.
*        0.
GRID*    494                            1.79999995231628 0.
*        0.
$ ... 8 like lines cut
GRID     499            2.       0.      0.
GRID*    500                            2.03999996185303 0.
*        0.
GRID*    501                            2.07999992370606 0.
*        0.
GRID*    502                            2.11999988555908 0.
*        0.
GRID*    503                            2.15999984741211 0.
*        0.
GRID*    504                            2.20000004768372 0.
*        0.
GRID*    505                            2.24000000953674 0.
*        0.
GRID*    506                            2.27999997138977 0.
*        0.
GRID*    507                            2.3199999332428  0.
*        0.
GRID*    508                            2.35999989509583 0.
*        0.
GRID*    509                            2.39999985694885 0.
*        0.
GRID*    510                            2.44000005722046 0.
*        0.
GRID*    511                            2.48000001907349 0.
*        0.
GRID*    512                            2.51999998092651 0.
*        0.
GRID*    513                            2.55999994277954 0.
*        0.
GRID*    514                            2.59999990463257 0.
*        0.
GRID*    515                            2.6399998664856  0.
*        0.
GRID*    516                            2.67999982833862 0.
*        0.
GRID*    517                            2.72000002861023 0.
*        0.
GRID*    518                            2.75999999046326 0.
*        0.
GRID*    519                            2.79999995231628 0.
*        0.
$ ... 8 like lines cut
GRID     524            3.       0.      0.
GRID*    525                            3.03999996185303 0.
*        0.
GRID*    526                            3.07999992370606 0.
*        0.
GRID*    527                            3.11999988555908 0.
*        0.
GRID*    528                            3.15999984741211 0.
*        0.
GRID*    529                            3.19999980926514 0.
*        0.
GRID*    530                            3.24000000953674 0.
*        0.
GRID*    531                            3.27999997138977 0.
*        0.
GRID*    532                            3.3199999332428  0.
*        0.
GRID*    533                            3.35999989509583 0.
*        0.
GRID*    534                            3.39999985694885 0.
*        0.
GRID*    535                            3.43999981880188 0.
*        0.
GRID*    536                            3.48000001907349 0.
*        0.
GRID*    537                            3.51999998092651 0.
*        0.
GRID*    538                            3.55999994277954 0.
*        0.
GRID*    539                            3.59999990463257 0.
*        0.
GRID*    540                            3.6399998664856  0.
*        0.
GRID*    541                            3.67999982833862 0.
*        0.
GRID*    542                            3.72000002861023 0.
*        0.
GRID*    543                            3.75999999046326 0.
*        0.
GRID*    544                            3.79999995231628 0.
*        0.
$ ... 8 like lines cut
GRID     549            4.       0.      0.
GRID*    550                             0.             .03999999910593
*        0.
GRID*    551                            .03999999910593 .03999999910593
*        0.
GRID*    552                            .079999998211861.03999999910593
*        0.
GRID*    553                            .119999997317791.03999999910593
*        0.
GRID*    554                            .159999996423721.03999999910593
*        0.
GRID*    555                            .199999988079071.03999999910593
*        0.
GRID*    556                            .239999994635582.03999999910593
*        0.
GRID*    557                            .280000001192093.03999999910593
*        0.
GRID*    558                            .319999992847443.03999999910593
*        0.
GRID*    559                            .359999984502792.03999999910593
*        0.
GRID*    560                            .399999976158142.03999999910593
*        0.
GRID*    561                            .439999997615814.03999999910593
*        0.
GRID*    562                            .479999989271164.03999999910593
*        0.
GRID*    563                            .519999980926514.03999999910593
*        0.
GRID*    564                            .560000002384186.03999999910593
*        0.
GRID*    565                            .599999964237213.03999999910593
*        0.
GRID*    566                            .639999985694885.03999999910593
*        0.
GRID*    567                            .680000007152557.03999999910593
*        0.
GRID*    568                            .719999969005585.03999999910593
*        0.
GRID*    569                            .759999990463257.03999999910593
*        0.
$ ... 4202 like lines cut
$ Loads for Load Case : Default
$ Referenced Coordinate Frames
ENDDATA c4e00e56
