$ NASTRAN input file created by the Patran 2016 input file translator on
$  January   10, 2018 at 15:44:49.
$ Direct Text Input for Nastran System Cell Section
$ Direct Text Input for File Management Section
$ Direct Text Input for Executive Control
$ Linear Static Analysis, Database
SOL 101
CEND
$ Direct Text Input for Global Case Control Data
TITLE = MSC.Nastran job created on 10-Jan-18 at 15:44:27
ECHO = NONE
SUBCASE 1
$ Subcase name : Default
   SUBTITLE=Default
   DISPLACEMENT(SORT1,REAL)=ALL
   SPCFORCES(SORT1,REAL)=ALL
   STRESS(SORT1,REAL,VONMISES,BILIN)=ALL
BEGIN BULK
$ Direct Text Input for Bulk Data
PARAM    POST    0
PARAM   PRTMAXIM YES
$ Elements and Element Properties for region : struct
PSHELL   1       1      1.       1               1
$ Pset: "struct" will be imported as: "pshell.1"
CTRIA3   1       1       13      12      1
CTRIA3   2       1       1       2       13
CTRIA3   3       1       2       3       13
CTRIA3   4       1       14      13      3
CTRIA3   5       1       15      14      3
CTRIA3   6       1       3       4       15
CTRIA3   7       1       4       5       15
CTRIA3   8       1       16      15      5
CTRIA3   9       1       17      16      5
CTRIA3   10      1       5       6       17
CTRIA3   11      1       6       7       17
CTRIA3   12      1       18      17      7
CTRIA3   13      1       19      18      7
CTRIA3   14      1       7       8       19
CTRIA3   15      1       8       9       19
CTRIA3   16      1       20      19      9
CTRIA3   17      1       21      20      9
CTRIA3   18      1       9       10      21
CTRIA3   19      1       10      11      21
CTRIA3   20      1       22      21      11
$ ... 700 like lines cut
$ Referenced Material Records
$ Material Record : steel
$ Description of Material : Date: 10-Jan-18           Time: 15:40:46
MAT1     1      210000.         .3
$ Nodes of the Entire Model
GRID     1               0.      0.      0.
GRID*    2                               0.             .007000000216067
*        0.
GRID*    3                               0.             .014000000432134
*        0.
GRID*    4                               0.             .021000001579523
*        0.
GRID*    5                               0.             .028000000864267
*        0.
GRID*    6                               0.             .035000000149012
*        0.
GRID*    7                               0.             .042000003159046
*        0.
GRID*    8                               0.             .04899999499321
*        0.
GRID*    9                               0.             .055999998003244
*        0.
GRID*    10                              0.             .062999993562698
*        0.
GRID*    11                              0.             .070000000298023
*        0.
GRID*    12                              0.              0.
*       .006750000175089
GRID*    13                              0.             .007000000216067
*       .006750000175089
GRID*    14                              0.             .014000000432134
*       .006750000175089
GRID*    15                              0.             .021000001579523
*       .006750000175089
GRID*    16                              0.             .028000000864267
*       .006750000175089
GRID*    17                              0.             .035000000149012
*       .006750000175089
GRID*    18                              0.             .042000003159046
*       .006750000175089
GRID*    19                              0.             .04899999499321
*       .006750000175089
GRID*    20                              0.             .055999998003244
*       .006750000175089
GRID*    21                              0.             .062999993562698
*       .006750000175089
$ ... 178 like lines cut
GRID     111             0.      0.      0.
GRID*    112                             0.              0.
*       .006750000175089
GRID*    113                             0.              0.
*       .013500000350177
GRID*    114                             0.              0.
*       .020250000059605
GRID*    115                             0.              0.
*       .027000000700355
GRID*    116                            .007000000216067 0.
*        0.
GRID*    117                            .007000000216067 0.
*       .006750000175089
GRID*    118                            .007000000216067 0.
*       .013500000350177
GRID*    119                            .007000000216067 0.
*       .020250000059605
GRID*    120                            .007000000216067 0.
*       .027000000700355
GRID*    121                            .014000000432134 0.
*        0.
GRID*    122                            .014000000432134 0.
*       .006750000175089
GRID*    123                            .014000000432134 0.
*       .013500000350177
GRID*    124                            .014000000432134 0.
*       .020250000059605
GRID*    125                            .014000000432134 0.
*       .027000000700355
GRID*    126                            .021000001579523 0.
*        0.
GRID*    127                            .021000001579523 0.
*       .006750000175089
GRID*    128                            .021000001579523 0.
*       .013500000350177
GRID*    129                            .021000001579523 0.
*       .020250000059605
GRID*    130                            .021000001579523 0.
*       .027000000700355
GRID*    131                            .028000000864267 0.
*        0.
$ ... 178 like lines cut
GRID     221             0.      0.      0.
GRID*    222                            .006999999750406 0.
*        0.
GRID*    223                            .013999999500811 0.
*        0.
GRID*    224                            .020999999716878 0.
*        0.
GRID*    225                            .027999999001622 0.
*        0.
GRID*    226                            .035000000149012 0.
*        0.
GRID*    227                            .041999999433756 0.
*        0.
GRID*    228                            .0489999987185   0.
*        0.
GRID*    229                            .055999998003244 0.
*        0.
GRID*    230                            .063000001013279 0.
*        0.
GRID*    231                            .070000000298023 0.
*        0.
GRID*    232                             0.             .006999999750406
*        0.
GRID*    233                            .006999999750406.006999999750406
*        0.
GRID*    234                            .013999999500811.006999999750406
*        0.
GRID*    235                            .020999999716878.006999999750406
*        0.
GRID*    236                            .027999999001622.006999999750406
*        0.
GRID*    237                            .035000000149012.006999999750406
*        0.
GRID*    238                            .041999999433756.006999999750406
*        0.
GRID*    239                            .0489999987185  .006999999750406
*        0.
GRID*    240                            .055999998003244.006999999750406
*        0.
GRID*    241                            .063000001013279.006999999750406
*        0.
$ ... 442 like lines cut
$ Loads for Load Case : Default
$ Referenced Coordinate Frames
ENDDATA 64f7c093
