$ NASTRAN input file created by the Patran 2016 input file translator on
$  January   10, 2018 at 15:44:49.                                      
$ Direct Text Input for Nastran System Cell Section                     
$ Direct Text Input for File Management Section                         
$ Direct Text Input for Executive Control                               
$ Linear Static Analysis, Database                                      
SOL 101                                                                 
CEND                                                                    
$ Direct Text Input for Global Case Control Data                        
TITLE = MSC.Nastran job created on 10-Jan-18 at 15:44:27                
ECHO = NONE                                                             
SUBCASE 1                                                               
$ Subcase name : Default                                                
   SUBTITLE=Default                                                     
   DISPLACEMENT(SORT1,REAL)=ALL                                         
   SPCFORCES(SORT1,REAL)=ALL                                            
   STRESS(SORT1,REAL,VONMISES,BILIN)=ALL                                
BEGIN BULK                                                              
$ Direct Text Input for Bulk Data                                       
PARAM    POST    0                                                      
PARAM   PRTMAXIM YES                                                    
$ Elements and Element Properties for region : struct                   
PSHELL   1       1      1.       1               1                      
$ Pset: "struct" will be imported as: "pshell.1"                        
CTRIA3   1       1       13      12      1                              
CTRIA3   2       1       1       2       13                             
CTRIA3   3       1       2       3       13                             
CTRIA3   4       1       14      13      3                              
CTRIA3   5       1       15      14      3                              
CTRIA3   6       1       3       4       15                             
CTRIA3   7       1       4       5       15                             
CTRIA3   8       1       16      15      5                              
CTRIA3   9       1       17      16      5                              
CTRIA3   10      1       5       6       17                             
CTRIA3   11      1       6       7       17                             
CTRIA3   12      1       18      17      7                              
CTRIA3   13      1       19      18      7                              
CTRIA3   14      1       7       8       19                             
CTRIA3   15      1       8       9       19                             
CTRIA3   16      1       20      19      9                              
CTRIA3   17      1       21      20      9                              
CTRIA3   18      1       9       10      21                             
CTRIA3   19      1       10      11      21                             
CTRIA3   20      1       22      21      11                             
$ ... 700 like lines cut
$ Referenced Material Records                                           
$ Material Record : steel                                               
$ Description of Material : Date: 10-Jan-18           Time: 15:40:46    
MAT1     1      210000.         .3                                      
$ Nodes of the Entire Model                                             
GRID*         1                          0.0000E+00      0.0000E+00
*        0.0000E+00
GRID*         2                          0.0000E+00      0.7000E-02
*        0.0000E+00
GRID*         3                          0.0000E+00      0.1400E-01
*        0.0000E+00
GRID*         4                          0.0000E+00      0.2100E-01
*        0.0000E+00
GRID*         5                          0.0000E+00      0.2800E-01
*        0.0000E+00
GRID*         6                          0.0000E+00      0.3500E-01
*        0.0000E+00
GRID*         7                          0.0000E+00      0.4200E-01
*        0.0000E+00
GRID*         8                          0.0000E+00      0.4900E-01
*        0.0000E+00
GRID*         9                          0.0000E+00      0.5600E-01
*        0.0000E+00
GRID*        10                          0.0000E+00      0.6300E-01
*        0.0000E+00
GRID*        11                          0.0000E+00      0.7000E-01
*        0.0000E+00
GRID*        12                          0.0000E+00      0.0000E+00
*        0.6750E-02
GRID*        13                          0.0000E+00      0.7000E-02
*        0.6750E-02
GRID*        14                          0.0000E+00      0.1400E-01
*        0.6750E-02
GRID*        15                          0.0000E+00      0.2100E-01
*        0.6750E-02
GRID*        16                          0.0000E+00      0.2800E-01
*        0.6750E-02
GRID*        17                          0.0000E+00      0.3500E-01
*        0.6750E-02
GRID*        18                          0.0000E+00      0.4200E-01
*        0.6750E-02
GRID*        19                          0.0000E+00      0.4900E-01
*        0.6750E-02
GRID*        20                          0.0000E+00      0.5600E-01
*        0.6750E-02
$ ... 884 like lines cut
$ Loads for Load Case : Default                                         
$ Referenced Coordinate Frames                                          
ENDDATA 64f7c093                                                        
